/*--------------------------------*- C++ -*----------------------------------*\
| =========                 |                                                 |
| \\      /  F ield         | OpenFOAM: The Open Source CFD Toolbox           |
|  \\    /   O peration     | Version:  v1812                                 |
|   \\  /    A nd           | Web:      www.OpenFOAM.com                      |
|    \\/     M anipulation  |                                                 |
\*---------------------------------------------------------------------------*/
FoamFile
{
    version     2.0;
    format      ascii;
    class       volScalarField;
    location    "0";
    object      p;
}
// * * * * * * * * * * * * * * * * * * * * * * * * * * * * * * * * * * * * * //

dimensions      [1 -1 -2 0 0 0 0];


internalField   uniform 30800.7;

boundaryField
{
    hot
    {
        type            totalPressure;
        p0              uniform 57692.154;
        value           uniform 57692.154;
    }
    cold
    {
        type            totalPressure;
        p0              uniform 65083.958;
        value           uniform 65083.958;
    }
    in
    {
        type            fixedValue;
        value           uniform 36404.86;
    }
    wing
    {
        type            zeroGradient;
    }
    far
    {
        type            fixedValue;
        value           uniform 30800.7;
    }
    sym
    {
        type            symmetry;
    }
}


// ************************************************************************* //
